@<TRIPOS>MOLECULE
p-xylene
   18    18     1     0     0
SMALL
bcc


@<TRIPOS>ATOM
      1 C1          1.8850   -1.0360   -0.1120 ca        1 MOL     -0.127000
      2 C2          0.8070   -0.4630    0.5610 ca        1 MOL     -0.127000
      3 C3          2.8780   -1.6520    2.0020 ca        1 MOL     -0.127000
      4 C4          1.8000   -1.0790    2.6760 ca        1 MOL     -0.127000
      5 C5          2.9210   -1.6310    0.6080 ca        1 MOL     -0.082300
      6 C6          0.7640   -0.4840    1.9550 ca        1 MOL     -0.082300
      7 C7          4.0740   -2.2440   -0.1110 c3        1 MOL     -0.052800
      8 C8         -0.3890    0.1310    2.6740 c3        1 MOL     -0.052800
      9 H1          1.9100   -1.0160   -1.1990 ha        1 MOL      0.130000
     10 H2          0.0050   -0.0010   -0.0090 ha        1 MOL      0.130000
     11 H3          3.6820   -2.1120    2.5710 ha        1 MOL      0.130000
     12 H4          1.7740   -1.1000    3.7620 ha        1 MOL      0.130000
     13 H5          4.8670   -1.5010   -0.2660 hc        1 MOL      0.043033
     14 H6          4.4940   -3.0870    0.4540 hc        1 MOL      0.043033
     15 H7          3.7700   -2.6380   -1.0900 hc        1 MOL      0.043033
     16 H8         -1.1820   -0.6110    2.8300 hc        1 MOL      0.043033
     17 H9         -0.0840    0.5240    3.6530 hc        1 MOL      0.043033
     18 H10        -0.8070    0.9740    2.1090 hc        1 MOL      0.043033
@<TRIPOS>BOND
     1    1    2 ar  
     2    1    5 ar  
     3    2    6 ar  
     4    3    4 ar  
     5    3    5 ar  
     6    4    6 ar  
     7    5    7 1   
     8    6    8 1   
     9    1    9 1   
    10    2   10 1   
    11    3   11 1   
    12    4   12 1   
    13    7   13 1   
    14    7   14 1   
    15    7   15 1   
    16    8   16 1   
    17    8   17 1   
    18    8   18 1   
@<TRIPOS>SUBSTRUCTURE
     1 MOL         1 TEMP              0 ****  ****    0 ROOT
