@<TRIPOS>MOLECULE
4R1V.A
66 70 1 0 0 
SMALL
USER_CHARGES


@<TRIPOS>ATOM
  1 C1      18.1960    28.7060    55.5290 C.ar  1 Q3E8   0.0862 
  2 C2      17.4630    27.6160    55.0740 C.ar  1 Q3E8  -0.1500 
  3 H2      17.2692    26.7814    55.7315 H     1 Q3E8   0.1500 
  4 C3      18.4300    29.7870    54.6780 C.ar  1 Q3E8  -0.1500 
  5 H3      18.9801    30.6464    55.0318 H     1 Q3E8   0.1500 
  6 C4      16.9780    27.6030    53.7650 C.ar  1 Q3E8   0.0730 
  7 C5      17.9520    29.7530    53.3730 C.ar  1 Q3E8  -0.1500 
  8 H5      18.1570    30.5800    52.7093 H     1 Q3E8   0.1500 
  9 C6      17.2120    28.6670    52.9090 C.ar  1 Q3E8  -0.1500 
 10 H6      16.8277    28.6550    51.8998 H     1 Q3E8   0.1500 
 11 C7      18.6880    28.7680    56.9170 C.2   1 Q3E8   0.3494 
 12 C8      18.8880    27.5660    57.7580 C.2   1 Q3E8  -0.1356 
 13 H8      18.6760    26.5873    57.3535 H     1 Q3E8   0.1500 
 14 N9      18.9240    29.9490    57.4130 N.2   1 Q3E8  -0.5120 
 15 C10     19.3310    27.6840    59.0200 C.2   1 Q3E8  -0.1356 
 16 H10     19.4754    26.8047    59.6303 H     1 Q3E8   0.1500 
 17 N11     19.3680    30.0740    58.7290 N.am  1 Q3E8  -0.2981 
 18 C12     19.6160    29.0090    59.5610 C.2   1 Q3E8   0.6156 
 19 C13     19.6490    31.4670    59.0890 C.3   1 Q3E8   0.2836 
 20 H131    19.6693    31.5656    60.1743 H     1 Q3E8   0.0800 
 21 H132    18.8719    32.1127    58.6800 H     1 Q3E8   0.0800 
 22 C14     20.9980    31.8710    58.5170 C.ar  1 Q3E8  -0.1435 
 23 C15     22.1390    31.8020    59.2930 C.ar  1 Q3E8  -0.1500 
 24 H15     22.0662    31.4760    60.3201 H     1 Q3E8   0.1500 
 25 C16     21.1230    32.2870    57.1950 C.ar  1 Q3E8  -0.1500 
 26 H16     20.2455    32.3355    56.5673 H     1 Q3E8   0.1500 
 27 C17     23.3770    32.1460    58.7700 C.ar  1 Q3E8  -0.1500 
 28 H17     24.2550    32.1012    59.3972 H     1 Q3E8   0.1500 
 29 C18     22.3570    32.6400    56.6720 C.ar  1 Q3E8  -0.0000 
 30 C19     23.4940    32.5420    57.4640 C.ar  1 Q3E8  -0.1500 
 31 H19     24.4645    32.7767    57.0524 H     1 Q3E8   0.1500 
 32 C20     22.4600    32.9530    55.2520 C.ar  1 Q3E8   0.6200 
 33 N21     23.6930    33.2250    54.7220 N.ar  1 Q3E8  -0.6200 
 34 N22     21.3330    32.8270    54.4570 N.ar  1 Q3E8  -0.6200 
 35 C23     23.8140    33.4040    53.3660 C.ar  1 Q3E8   0.1600 
 36 H23     24.7720    33.6510    52.9329 H     1 Q3E8   0.1500 
 37 C24     21.4730    32.9820    53.1040 C.ar  1 Q3E8   0.1600 
 38 H24     20.6106    32.8801    52.4619 H     1 Q3E8   0.1500 
 39 C25     22.6960    33.2650    52.5570 C.ar  1 Q3E8   0.0825 
 40 O26     22.7440    33.4250    51.2010 O.3   1 Q3E8  -0.3625 
 41 O27     20.0130    29.1980    60.6950 O.2   1 Q3E8  -0.5700 
 42 C28     23.9710    33.3210    50.5000 C.3   1 Q3E8   0.1200 
 43 H281    24.6398    32.6749    51.0687 H     1 Q3E8   0.0800 
 44 H282    24.4083    34.3162    50.4201 H     1 Q3E8   0.0800 
 45 C29     23.8210    32.7430    49.0910 C.3   1 Q3E8  -0.0800 
 46 H29     24.7290    33.0052    48.5480 H     1 Q3E8   0.0800 
 47 C30     22.6090    33.3350    48.3920 C.3   1 Q3E8  -0.1600 
 48 H301    22.6559    34.4238    48.4135 H     1 Q3E8   0.0800 
 49 H302    21.6927    33.0011    48.8788 H     1 Q3E8   0.0800 
 50 C31     23.6810    31.2140    49.1100 C.3   1 Q3E8  -0.1600 
 51 H311    22.7330    30.9388    49.5722 H     1 Q3E8   0.0800 
 52 H312    24.5025    30.7781    49.6786 H     1 Q3E8   0.0800 
 53 C32     22.6550    32.8270    46.9340 C.3   1 Q3E8   0.3430 
 54 H321    23.5655    33.1930    46.4596 H     1 Q3E8   0.0800 
 55 H322    21.7868    33.2098    46.3976 H     1 Q3E8   0.0800 
 56 C33     23.7210    30.6910    47.6550 C.3   1 Q3E8   0.3430 
 57 H331    23.5718    29.6113    47.6509 H     1 Q3E8   0.0800 
 58 H332    24.6874    30.9259    47.2090 H     1 Q3E8   0.0800 
 59 N34     22.6430    31.3440    46.8760 N.4   1 Q3E8  -0.9590 
 60 H34     21.7871    31.0479    47.3230 H     1 Q3E8   0.4500 
 61 C35     22.6560    30.8990    45.4660 C.3   1 Q3E8   0.2630 
 62 H351    23.5824    31.2225    44.9915 H     1 Q3E8   0.0800 
 63 H352    21.8068    31.3347    44.9396 H     1 Q3E8   0.0800 
 64 H353    22.5884    29.8118    45.4275 H     1 Q3E8   0.0800 
 65 C36     16.2060    26.4880    53.3300 C.1   1 Q3E8   0.4841 
 66 N37     15.5180    25.6040    53.0320 N.1   1 Q3E8  -0.5571 
@<TRIPOS>BOND
  1   1   2  ar  
  2   1   4  ar  
  3   1  11  1   
  4   2   3  1   
  5   2   6  ar  
  6   4   5  1   
  7   4   7  ar  
  8   6   9  ar  
  9   6  65  1   
 10   7   8  1   
 11   7   9  ar  
 12   9  10  1   
 13  11  12  1   
 14  11  14  2   
 15  12  13  1   
 16  12  15  2   
 17  14  17  1   
 18  15  16  1   
 19  15  18  1   
 20  17  18  am  
 21  17  19  1   
 22  18  41  2   
 23  19  20  1   
 24  19  21  1   
 25  19  22  1   
 26  22  23  ar  
 27  22  25  ar  
 28  23  24  1   
 29  23  27  ar  
 30  25  26  1   
 31  25  29  ar  
 32  27  28  1   
 33  27  30  ar  
 34  29  30  ar  
 35  29  32  1   
 36  30  31  1   
 37  32  33  ar  
 38  32  34  ar  
 39  33  35  ar  
 40  34  37  ar  
 41  35  36  1   
 42  35  39  ar  
 43  37  38  1   
 44  37  39  ar  
 45  39  40  1   
 46  40  42  1   
 47  42  43  1   
 48  42  44  1   
 49  42  45  1   
 50  45  46  1   
 51  45  47  1   
 52  45  50  1   
 53  47  48  1   
 54  47  49  1   
 55  47  53  1   
 56  50  51  1   
 57  50  52  1   
 58  50  56  1   
 59  53  54  1   
 60  53  55  1   
 61  53  59  1   
 62  56  57  1   
 63  56  58  1   
 64  56  59  1   
 65  59  60  1   
 66  59  61  1   
 67  61  62  1   
 68  61  63  1   
 69  61  64  1   
 70  65  66  3   
@<TRIPOS>SUBSTRUCTURE
  1 Q3E8  34 GROUP 4 A **** 0

# MOE 2014.09 (io_trps.svl 2012.10)
